testing/cases_bad/case_RAND7_C5_dup_busnum.dat
01/01/26  EE574 GEN            100.0  2026W  RAND7
BUS DATA FOLLOWS                            7 ITEMS
   1 Bus1                3 1.060   0.00     0.00     0.00   132.21   79.06                                  0.0000  0.0000     0
   2 Bus2                0 1.000  -3.18   193.32   -12.06     0.00    0.00                                  0.0000  0.0000     0
   3 Bus3                2 1.037  -0.08     0.00     0.00   117.13  -68.08                                  0.0000  0.0200     0
   3 Bus4                0 0.978  -9.35    96.39    36.92     0.00    0.00                                  0.0000  0.0200     0
   5 Bus5                2 1.049  -0.18     0.00     0.00   158.89  180.33                                  0.0000  0.0000     0
   6 Bus6                0 0.968  -0.96    -5.69   121.29     0.00    0.00                                  0.0000  0.0000     0
   7 Bus7                0 1.002  -9.10   109.72    -8.14     0.00    0.00                                  0.0000  0.0000     0
-999
BRANCH DATA FOLLOWS                         8 ITEMS
   1    2        1    0.05356    0.03965   0.01458                           1.000 0.0
   1    3        1    0.00000    0.14022   0.00000                           0.922 0.0
   2    4        1    0.00000    0.11765   0.00000                           0.989 0.0
   2    5        1    0.01500    0.04466   0.03296                           1.000 0.0
   5    6        1    0.00000    0.10731   0.00000                           0.970 0.0
   3    7        1    0.01852    0.14051   0.02516                           1.000 0.0
   2    6        1    0.01784    0.18147   0.00931                           1.000 0.0
   4    7        1    0.05907    0.17694   0.03189                           1.000 0.0
-999
